# generated using pymatgen
data_MnH3C2O3
_symmetry_space_group_name_H-M   'P 1'
_cell_length_a   5.87450000
_cell_length_b   7.43160000
_cell_length_c   7.92270000
_cell_angle_alpha   90.00000000
_cell_angle_beta   92.41400000
_cell_angle_gamma   90.00000000
_symmetry_Int_Tables_number   1
_chemical_formula_structural   MnH3C2O3
_chemical_formula_sum   'Mn4 H12 C8 O12'
_cell_volume   345.573846944
_cell_formula_units_Z   4
loop_
 _symmetry_equiv_pos_site_id
 _symmetry_equiv_pos_as_xyz
  1  'x, y, z'
loop_
 _atom_site_type_symbol
 _atom_site_label
 _atom_site_symmetry_multiplicity
 _atom_site_fract_x
 _atom_site_fract_y
 _atom_site_fract_z
 _atom_site_occupancy
  Mn  Mn1  1  0.241940  0.101530  0.473710  1.0
  Mn  Mn2  1  0.258060  0.601530  0.526290  1.0
  Mn  Mn3  1  0.758060  0.898470  0.526290  1.0
  Mn  Mn4  1  0.741940  0.398470  0.473710  1.0
  H  H5  1  0.938000  0.182000  0.676000  1.0
  H  H6  1  0.562000  0.682000  0.324000  1.0
  H  H7  1  0.062000  0.818000  0.324000  1.0
  H  H8  1  0.438000  0.318000  0.676000  1.0
  H  H9  1  0.047000  0.323200  0.946000  1.0
  H  H10  1  0.453000  0.823200  0.054000  1.0
  H  H11  1  0.953000  0.676800  0.054000  1.0
  H  H12  1  0.547000  0.176800  0.946000  1.0
  H  H13  1  0.235900  0.465100  0.993700  1.0
  H  H14  1  0.264100  0.965100  0.006300  1.0
  H  H15  1  0.764100  0.534900  0.006300  1.0
  H  H16  1  0.735900  0.034900  0.993700  1.0
  C  C17  1  0.084500  0.424200  0.019500  1.0
  C  C18  1  0.415500  0.924200  0.980500  1.0
  C  C19  1  0.915500  0.575800  0.980500  1.0
  C  C20  1  0.584500  0.075800  0.019500  1.0
  C  C21  1  0.088700  0.360000  0.200800  1.0
  C  C22  1  0.411300  0.860000  0.799200  1.0
  C  C23  1  0.911300  0.640000  0.799200  1.0
  C  C24  1  0.588700  0.140000  0.200800  1.0
  O  O25  1  0.910600  0.159700  0.573000  1.0
  O  O26  1  0.589400  0.659700  0.427000  1.0
  O  O27  1  0.089400  0.840300  0.427000  1.0
  O  O28  1  0.410600  0.340300  0.573000  1.0
  O  O29  1  0.130200  0.198000  0.227800  1.0
  O  O30  1  0.369800  0.698000  0.772200  1.0
  O  O31  1  0.869800  0.802000  0.772200  1.0
  O  O32  1  0.630200  0.302000  0.227800  1.0
  O  O33  1  0.446000  0.975600  0.683400  1.0
  O  O34  1  0.054000  0.475600  0.316600  1.0
  O  O35  1  0.554000  0.024400  0.316600  1.0
  O  O36  1  0.946000  0.524400  0.683400  1.0
